*SPEF "IEEE 1481-1998"
*DESIGN "PROCESSOR"
*DATE "Fri Aug 29 12:22:04 2025"
*VENDOR "Cadence Design Systems, Inc."
*PROGRAM "Innovus"
*VERSION "21.15-s110_1"
*DESIGN_FLOW "PIN_CAP NONE" "NAME_SCOPE LOCAL"
*DIVIDER /
*DELIMITER :
*BUS_DELIMITER []
*T_UNIT 1 NS
*C_UNIT 1 PF
*R_UNIT 1 OHM
*L_UNIT 1 HENRY

// MMMC spef file for corner 'default_rc_corner'

*NAME_MAP

*1 FE_DBTN0_IFU_module_PC_3
*2 clock
*3 reset
*4 zero
*5 IFU_module_PC[4]
*6 IFU_module_PC[3]
*7 IFU_module_PC[2]
*8 alu_control[2]
*9 alu_control[1]
*10 alu_control[0]
*11 instruction_code[10]
*12 IFU_module_n_41
*13 UNCONNECTED
*14 UNCONNECTED0
*15 UNCONNECTED1
*16 datapath_module_reg_file_module_n_48
*17 n_0
*18 n_1
*19 n_3
*20 n_4
*21 n_5
*22 n_8
*23 n_10
*24 n_11
*25 n_12
*26 n_13
*27 n_14
*28 n_15
*29 n_17
*30 n_18
*31 n_20
*32 n_21
*33 n_25
*34 n_26
*35 n_39
*36 FE_DBTC0_IFU_module_PC_3
*37 g6704__2398
*38 g6706__5107
*39 g6707__6260
*40 g6708__4319
*41 g6709__8428
*42 g6710__5526
*43 g6907__6783
*44 g6908__3680
*45 g6909__1617
*46 control_module_alu_control_reg\[2\]
*47 control_module_alu_control_reg\[0\]
*48 control_module_alu_control_reg\[1\]
*49 g6914__2802
*50 g6915__1705
*51 g6916__5122
*52 g6917__8246
*53 g6918
*54 g6919__7098
*55 g6921__6131
*56 g6922__1881
*57 g6925__5115
*58 g6926
*59 g6927__7482
*60 g6928
*61 IFU_module_PC_reg\[2\]
*62 IFU_module_PC_reg\[3\]
*63 IFU_module_PC_reg\[4\]
*64 g6611
*65 g6612


*PORTS

*2 I *C 0 13.72
*3 I *C 0 5.88
*4 O *C 50.82 14.28


*D_NET *1 0.00208755

*CONN
*I *36:Y O *C 20.13 15.4 *L 0 *D INVX1
*I *56:A0 I *C 20.13 19.88 *L 0.00336 *D OAI21XL
*I *59:A I *C 21.45 15.4 *L 0.00403 *D NAND2X1
*I *42:B I *C 21.45 10.36 *L 0.00277 *D NAND2XL

*CAP
1 *1:0 0.00037346
2 *1:1 0.000536251
3 *1:2 0.000507523
4 *1:4 0.000268125
5 *1:5 0.00017875
6 *1:6 0.000223438

*RES
1 *1:6 *42:B 6.4
2 *1:5 *59:A 6.4
3 *1:4 *56:A0 6.4
4 *1:2 *1:6 0.349856
5 *1:2 *1:5 0.279884
6 *1:1 *1:4 0.419827
7 *1:1 *36:Y 6.4
8 *1:0 *1:2 0.164932
9 *1:0 *1:1 0.419827
*END

*D_NET *2 0.0026989

*CONN
*P *2 I *C 0 13.72 *L 0
*I *61:CK I *C 3.63 15.4 *L 0.003 *D DFFRHQX1
*I *62:CK I *C 3.63 20.44 *L 0.003 *D DFFRHQX1
*I *63:CK I *C 5.61 5.32 *L 0.003 *D DFFRHQX1

*CAP
1 *2 0.000229418
2 *2:1 0.000229418
3 *2:2 0.000546239
4 *2:3 0.000110909
5 *2:4 0.000546239
6 *2:5 0.000443635
7 *2:6 0.000130157
8 *2:7 0.000332726
9 *2:9 0.000130157

*RES
1 *2:11 *63:CK 6.4
2 *2:9 *2:11 6.4
3 *2:7 *62:CK 6.4
4 *2:6 *2:9 0.714214
5 *2:5 *61:CK 6.4
6 *2:5 *2:7 1.818
7 *2:4 *2:6 6.4
8 *2:3 *2:5 0.606
9 *2:2 *2:4 3.03
10 *2:1 *2:3 6.4
11 *2:1 *2:2 6.4
12 *2 *2:1 1.25889
*END

*D_NET *3 0.000476605

*CONN
*P *3 I *C 0 5.88 *L 0
*I *65:A I *C 3.63 5.88 *L 0.0026 *D INVXL

*CAP
1 *3 0.000103105
2 *3:1 0.000103105
3 *3:3 0.000135197
4 *65:A 0.000135197

*RES
1 *3:3 *65:A 0.714217
2 *3:2 *3:3 6.4
3 *3:1 *3:2 6.4
4 *3 *3:1 0.54468
*END

*D_NET *4 0.000655028

*CONN
*I *43:Y O *C 45.21 14.28 *L 0 *D OAI21XL
*P *4 O *C 50.82 14.28 *L 0

*CAP
1 *43:Y 0.000180263
2 *4:1 0.000180263
3 *4:3 0.000147251
4 *4 0.000147251

*RES
1 *4:3 *4 0.782755
2 *4:2 *4:3 6.4
3 *4:1 *4:2 6.4
4 *43:Y *4:1 0.952289
*END

*D_NET *5 0.00920703

*CONN
*I *63:Q O *C 18.15 6.44 *L 0 *D DFFRHQX1
*I *40:B I *C 26.73 5.32 *L 0.00277 *D NAND2XL
*I *38:B0 I *C 19.47 10.92 *L 0.00314 *D AOI2BB1XL
*I *42:A I *C 22.11 9.8 *L 0.0031 *D NAND2XL
*I *57:S0 I *C 32.01 5.32 *L 0.00672 *D MXI2X1
*I *55:A0N I *C 33.99 5.88 *L 0.00189 *D OAI2BB1XL
*I *52:A I *C 22.11 19.88 *L 0.0031 *D NAND2XL
*I *39:A I *C 26.07 20.44 *L 0.0024 *D OR2X1
*I *50:A1 I *C 32.67 15.4 *L 0.00324 *D OAI21XL

*CAP
1 *63:Q 0.000675987
2 *5:1 0.00066233
3 *40:B 7.64752e-05
4 *5:3 9.01315e-05
5 *5:4 0.000134063
6 *5:5 0.000357501
7 *5:6 0.000223438
8 *5:7 0.000180263
9 *5:9 0.00085625
10 *5:10 0.000811184
11 *5:11 0.000134063
12 *5:12 0.000135197
13 *5:13 0.000223438
14 *5:14 0.000759689
15 *5:15 0.00017875
16 *5:16 0.000223438
17 *5:17 0.000804376
18 *5:19 0.00017875
19 *5:21 0.00017875
20 *5:22 0.000270395
21 *5:25 0.000360526
22 *5:26 0.000128369
23 *5:27 0.000223438
24 *5:28 0.000398764
25 *5:29 0.000223438
26 *5:30 0.000360526
27 *5:32 0.00017875
28 *5:33 0.00017875

*RES
1 *5:33 *50:A1 6.4
2 *5:32 *5:33 0.279884
3 *5:30 *5:32 6.4
4 *5:29 *39:A 6.4
5 *5:28 *5:30 1.90458
6 *5:27 *5:29 0.349856
7 *5:26 *5:28 0.202001
8 *5:25 *5:27 6.4
9 *5:25 *5:26 0.476144
10 *5:22 *5:25 1.42843
11 *5:21 *52:A 6.4
12 *5:19 *55:A0N 6.4
13 *5:17 *5:22 6.4
14 *5:17 *5:21 0.279884
15 *5:16 *57:S0 6.4
16 *5:15 *5:19 0.279884
17 *5:14 *42:A 6.4
18 *5:14 *5:17 0.979596
19 *5:13 *5:16 0.349856
20 *5:12 *5:15 6.4
21 *5:11 *5:14 0.209913
22 *5:10 *5:13 6.4
23 *5:10 *5:12 0.714217
24 *5:9 *5:11 6.4
25 *5:9 *5:10 3.57108
26 *5:7 *5:9 0.952289
27 *5:6 *38:B0 6.4
28 *5:5 *5:7 6.4
29 *5:5 *5:6 0.349856
30 *5:4 *5:5 0.209913
31 *5:3 *5:4 6.4
32 *63:Q *5:3 0.476144
33 *5:1 *40:B 0.404001
34 *63:Q *5:1 3.09494
*END

*D_NET *6 0.00701916

*CONN
*I *62:Q O *C 16.17 19.32 *L 0 *D DFFRHQX1
*I *36:A I *C 19.47 15.96 *L 0.00346 *D INVX1
*I *38:A0N I *C 20.79 10.92 *L 0.00247 *D AOI2BB1XL
*I *41:A I *C 22.11 5.32 *L 0.00403 *D NAND2X1
*I *37:A0N I *C 24.09 9.8 *L 0.00189 *D OAI2BB1XL
*I *39:B I *C 26.73 20.44 *L 0.00259 *D OR2X1
*I *40:A I *C 27.39 5.88 *L 0.0031 *D NAND2XL

*CAP
1 *62:Q 0.000135197
2 *6:1 0.000135197
3 *6:2 0.000268125
4 *6:3 0.000446876
5 *6:4 0.000284085
6 *6:5 9.01315e-05
7 *6:6 0.00019471
8 *36:A 9.01315e-05
9 *6:8 0.00019471
10 *6:9 0.000239398
11 *6:10 0.000223438
12 *6:11 0.000446876
13 *6:13 0.000225329
14 *6:14 0.000462835
15 *6:15 0.000225329
16 *6:16 0.000105335
17 *6:17 0.000893751
18 *41:A 0.000114713
19 *6:19 0.000893751
20 *6:21 0.00024991
21 *6:22 0.000180263
22 *6:23 0.000173435
23 *39:B 0.000180263
24 *6:25 0.000263567
25 *6:26 0.000263567
26 *40:A 3.82376e-05

*RES
1 *6:26 *40:A 0.202001
2 *6:25 *6:26 1.19036
3 *6:23 *6:25 0.202001
4 *6:22 *39:B 0.952289
5 *6:21 *6:23 0.714217
6 *6:19 *6:22 6.4
7 *41:A *6:21 0.606002
8 *6:17 *37:A0N 6.4
9 *6:17 *6:19 1.39942
10 *6:16 *41:A 6.4
11 *6:15 *6:17 6.4
12 *6:14 *6:16 0.164932
13 *6:13 *6:15 1.19036
14 *6:11 *6:14 0.559769
15 *6:11 *6:13 6.4
16 *6:10 *38:A0N 6.4
17 *6:10 *6:11 0.139942
18 *6:9 *6:10 0.209913
19 *6:8 *6:9 0.164932
20 *6:6 *6:8 0.139942
21 *6:5 *36:A 0.476144
22 *6:4 *6:6 0.164932
23 *6:3 *6:5 6.4
24 *6:3 *6:4 0.279884
25 *6:2 *6:3 0.419827
26 *6:1 *6:2 6.4
27 *62:Q *6:1 0.714217
*END

*D_NET *7 0.00554118

*CONN
*I *64:A I *C 3.63 9.8 *L 0.0026 *D INVXL
*I *61:Q O *C 16.17 16.52 *L 0 *D DFFRHQX1
*I *38:A1N I *C 20.13 10.36 *L 0.00223 *D AOI2BB1XL
*I *56:A1 I *C 20.79 20.44 *L 0.00324 *D OAI21XL
*I *59:B I *C 20.79 15.96 *L 0.00375 *D NAND2X1
*I *41:B I *C 21.45 5.88 *L 0.00375 *D NAND2X1

*CAP
1 *7:2 0.00085625
2 *7:3 0.000946381
3 *7:4 0.000312813
4 *7:5 0.000128369
5 *7:6 0.000536251
6 *7:7 0.000218501
7 *7:9 0.000223438
8 *7:10 0.000180263
9 *7:11 0.00031546
10 *7:12 0.000312813
11 *7:13 0.00031546
12 *7:14 0.000312813
13 *7:16 0.000312813
14 *7:17 3.82376e-05
15 *7:18 0.000268125
16 *7:19 4.46876e-05
17 *7:20 0.000128369
18 *41:B 9.01315e-05

*RES
1 *7:20 *41:B 0.476144
2 *7:19 *59:B 6.4
3 *7:18 *56:A1 6.4
4 *7:17 *7:20 0.202001
5 *7:16 *7:19 0.0699711
6 *7:16 *7:18 0.419827
7 *7:14 *7:17 6.4
8 *7:13 *7:16 6.4
9 *7:12 *38:A1N 6.4
10 *7:12 *7:14 0.489798
11 *7:11 *7:13 1.66651
12 *7:10 *7:12 6.4
13 *7:9 *7:11 6.4
14 *7:7 *7:10 0.952289
15 *7:6 *7:9 0.349856
16 *7:6 *61:Q 6.4
17 *7:5 *7:7 0.202001
18 *7:4 *7:6 0.489798
19 *7:3 *7:5 0.476144
20 *7:3 *7:4 6.4
21 *7:2 *7:3 4.52337
22 *7:1 *7:2 6.4
23 *64:A *7:1 6.4
*END

*D_NET *8 0.00204681

*CONN
*I *44:D I *C 43.23 15.96 *L 0.0031 *D NAND4XL
*I *43:A1 I *C 43.89 15.4 *L 0.00324 *D OAI21XL
*I *46:QN O *C 47.19 6.44 *L 0 *D TLATNX1

*CAP
1 *44:D 4.50658e-05
2 *43:A1 4.50658e-05
3 *8:2 0.000715001
4 *8:3 0.000978338
5 *8:4 0.000263337

*RES
1 *8:4 *46:QN 6.4
2 *8:3 *8:4 0.41233
3 *8:2 *8:3 1.11954
4 *43:A1 *8:2 6.4
5 *44:D *43:A1 0.238072
*END

*D_NET *9 0.00113634

*CONN
*I *48:Q O *C 39.27 18.76 *L 0 *D TLATNX1
*I *45:S0 I *C 42.57 20.44 *L 0.00612 *D MXI2XL
*I *44:C I *C 42.57 15.96 *L 0.00345 *D NAND4XL

*CAP
1 *9:1 0.00021067
2 *9:2 0.00056817
3 *9:3 0.000357501

*RES
1 *9:3 *44:C 6.4
2 *9:2 *45:S0 6.4
3 *9:2 *9:3 0.559769
4 *9:1 *9:2 0.329864
5 *48:Q *9:1 6.4
*END

*D_NET *10 0.00197155

*CONN
*I *44:B I *C 41.535 15.405 *L 0.00355 *D NAND4XL
*I *45:A I *C 45.87 19.88 *L 0.0026 *D MXI2XL
*I *47:Q O *C 45.21 8.68 *L 0 *D TLATNX1

*CAP
1 *10:2 0.00031546
2 *10:3 0.00031546
3 *10:4 0.000670313
4 *10:5 0.000312813
5 *10:6 0.000357501

*RES
1 *10:6 *47:Q 6.4
2 *10:5 *45:A 6.4
3 *10:4 *10:6 0.559769
4 *10:4 *10:5 0.489798
5 *10:3 *10:4 6.4
6 *10:2 *10:3 1.66651
7 *10:1 *10:2 6.4
8 *44:B *10:1 6.4
*END

*D_NET *11 0.00511177

*CONN
*I *63:D I *C 6.27 6.44 *L 0.00184 *D DFFRHQX1
*I *57:Y O *C 30.03 6.44 *L 0 *D MXI2X1
*I *49:B I *C 30.69 15.4 *L 0.00274 *D NOR2XL

*CAP
1 *11:2 0.000270395
2 *11:3 0.00034687
3 *11:4 0.00142845
4 *11:5 0.00135197
5 *11:6 0.000580938
6 *11:8 0.000633606
7 *11:9 0.000276105
8 *11:10 0.000223438

*RES
1 *11:10 *49:B 6.4
2 *11:9 *11:10 0.349856
3 *11:8 *11:9 0.082466
4 *11:6 *11:8 0.909625
5 *11:6 *57:Y 6.4
6 *11:5 *11:6 6.4
7 *11:4 *11:5 7.14217
8 *11:3 *11:4 0.404001
9 *11:2 *11:3 1.42843
10 *11:1 *11:2 6.4
11 *63:D *11:1 6.4
*END

*D_NET *12 0.00286828

*CONN
*I *62:D I *C 4.29 19.32 *L 0.00184 *D DFFRHQX1
*I *56:Y O *C 19.47 21.56 *L 0 *D OAI21XL
*I *52:B I *C 21.45 20.44 *L 0.00277 *D NAND2XL

*CAP
1 *12:2 0.000721052
2 *12:3 0.00075929
3 *12:4 0.000218501
4 *12:5 0.000450658
5 *12:7 0.000270395
6 *12:8 9.01315e-05
7 *12:9 0.000134063
8 *56:Y 9.01315e-05
9 *12:11 0.000134063

*RES
1 *12:11 *52:B 6.4
2 *12:9 *12:11 0.209913
3 *12:8 *56:Y 0.476144
4 *12:7 *12:9 6.4
5 *12:6 *12:8 6.4
6 *12:5 *12:7 1.42843
7 *12:5 *12:6 6.4
8 *12:4 *12:5 0.952289
9 *12:3 *12:4 0.202001
10 *12:2 *12:3 3.80916
11 *12:1 *12:2 6.4
12 *62:D *12:1 6.4
*END

*D_NET *16 0.00021067

*CONN
*I *39:Y O *C 28.05 19.32 *L 0 *D OR2X1
*I *51:A I *C 29.37 19.32 *L 0.00342 *D NAND3XL

*CAP
1 *16:1 0.000105335
2 *16:2 0.000105335

*RES
1 *16:2 *51:A 6.4
2 *16:1 *16:2 0.164932
3 *39:Y *16:1 6.4
*END

*D_NET *17 0.00686752

*CONN
*I *65:Y O *C 4.29 6.44 *L 0 *D INVXL
*I *63:RN I *C 16.83 4.76 *L 0.004 *D DFFRHQX1
*I *61:RN I *C 14.85 14.84 *L 0.004 *D DFFRHQX1
*I *62:RN I *C 14.85 21 *L 0.004 *D DFFRHQX1

*CAP
1 *17:0 0.00125911
2 *17:1 0.000492992
3 *17:2 0.00106792
4 *65:Y 0.000225329
5 *17:4 0.000166607
6 *17:5 9.01315e-05
7 *17:6 0.000223438
8 *17:7 0.000357501
9 *17:8 0.000344733
10 *17:10 0.000746921
11 *17:11 0.000588918
12 *17:12 0.00018673
13 *17:13 0.000625626
14 *17:14 0.000491563

*RES
1 *17:14 *62:RN 6.4
2 *17:13 *61:RN 6.4
3 *17:13 *17:14 0.769682
4 *17:12 *17:13 0.209913
5 *17:11 *17:12 0.082466
6 *17:10 *17:11 0.839653
7 *17:8 *17:10 0.329864
8 *17:7 *63:RN 6.4
9 *17:7 *17:8 0.209913
10 *17:6 *17:7 0.349856
11 *17:5 *17:6 6.4
12 *17:4 *17:5 0.476144
13 *17:2 *17:4 0.404001
14 *17:1 *65:Y 1.19036
15 *17:0 *17:2 5.23759
16 *17:0 *17:1 1.414
*END

*D_NET *18 0.000893751

*CONN
*I *64:Y O *C 4.29 9.24 *L 0 *D INVXL
*I *61:D I *C 4.29 16.52 *L 0.00184 *D DFFRHQX1

*CAP
1 *18:1 0.000446876
2 *18:2 0.000446876

*RES
1 *18:2 *61:D 6.4
2 *18:1 *18:2 0.699711
3 *64:Y *18:1 6.4
*END

*D_NET *19 0.00103101

*CONN
*I *57:B I *C 31.35 5.88 *L 0.00389 *D MXI2X1
*I *60:Y O *C 32.01 10.36 *L 0 *D INVX1
*I *54:A0 I *C 33.33 10.36 *L 0.00314 *D AOI21XL

*CAP
1 *19:1 0.000268125
2 *19:2 0.000320793
3 *19:3 0.000158002
4 *19:5 0.00019471
5 *19:6 8.93751e-05

*RES
1 *19:6 *54:A0 6.4
2 *19:5 *19:6 0.139942
3 *19:3 *19:5 0.164932
4 *19:3 *60:Y 6.4
5 *19:2 *19:3 0.082466
6 *19:1 *19:2 0.419827
7 *57:B *19:1 6.4
*END

*D_NET *20 0.00227919

*CONN
*I *56:B0 I *C 19.47 21 *L 0.00302 *D OAI21XL
*I *59:Y O *C 21.45 14.84 *L 0 *D NAND2X1
*I *58:A I *C 28.71 15.96 *L 0.00346 *D INVX1

*CAP
1 *56:B0 0.000135197
2 *20:1 0.000135197
3 *20:2 0.000158002
4 *20:3 0.000515503
5 *20:4 0.000357501
6 *20:5 0.000270395
7 *20:6 0.000218501
8 *59:Y 9.01315e-05
9 *20:8 0.000218501
10 *58:A 0.000180263

*RES
1 *20:8 *58:A 0.952289
2 *20:6 *20:8 0.202001
3 *20:5 *59:Y 0.476144
4 *20:5 *20:6 0.952289
5 *20:4 *20:5 6.4
6 *20:3 *20:4 0.559769
7 *20:2 *20:3 0.247398
8 *20:1 *20:2 6.4
9 *56:B0 *20:1 0.714217
*END

*D_NET *21 0.00162925

*CONN
*I *58:Y O *C 29.37 15.4 *L 0 *D INVX1
*I *50:A0 I *C 33.33 15.96 *L 0.00336 *D OAI21XL
*I *54:B0 I *C 33.99 9.8 *L 0.00319 *D AOI21XL

*CAP
1 *58:Y 4.50658e-05
2 *21:1 4.50658e-05
3 *21:3 0.000225329
4 *21:4 0.000225329
5 *21:5 0.000223438
6 *21:6 0.000276105
7 *21:8 0.000320793
8 *21:9 0.000268125

*RES
1 *21:9 *54:B0 6.4
2 *21:8 *21:9 0.419827
3 *21:6 *21:8 0.082466
4 *21:5 *50:A0 6.4
5 *21:5 *21:6 0.349856
6 *21:4 *21:5 6.4
7 *21:3 *21:4 1.19036
8 *21:2 *21:3 6.4
9 *21:1 *21:2 6.4
10 *58:Y *21:1 0.238072
*END

*D_NET *22 0.00152618

*CONN
*I *55:Y O *C 35.97 4.2 *L 0 *D OAI2BB1XL
*I *47:D I *C 41.91 10.36 *L 0.00392 *D TLATNX1

*CAP
1 *55:Y 4.50658e-05
2 *22:1 4.50658e-05
3 *22:2 0.000357501
4 *22:3 0.000357501
5 *22:4 0.000360526
6 *22:5 0.000360526

*RES
1 *22:6 *47:D 6.4
2 *22:5 *22:6 6.4
3 *22:4 *22:5 1.90458
4 *22:3 *22:4 6.4
5 *22:2 *22:3 0.559769
6 *22:1 *22:2 6.4
7 *55:Y *22:1 0.238072
*END

*D_NET *23 0.00115427

*CONN
*I *54:Y O *C 34.65 9.24 *L 0 *D AOI21XL
*I *53:A I *C 39.27 5.88 *L 0.00346 *D INVX1

*CAP
1 *54:Y 0.000225329
2 *23:1 0.000263567
3 *23:2 3.82376e-05
4 *23:3 0.000223438
5 *23:4 0.000223438
6 *23:5 9.01315e-05
7 *53:A 9.01315e-05

*RES
1 *23:5 *53:A 0.476144
2 *23:4 *23:5 6.4
3 *23:3 *23:4 0.349856
4 *23:2 *23:3 6.4
5 *23:1 *23:2 0.202001
6 *54:Y *23:1 1.19036
*END

*D_NET *24 0.000495512

*CONN
*I *53:Y O *C 39.93 5.32 *L 0 *D INVX1
*I *46:D I *C 42.57 5.32 *L 0.00392 *D TLATNX1

*CAP
1 *53:Y 4.50658e-05
2 *24:1 4.50658e-05
3 *24:2 5.26675e-05
4 *24:3 9.7355e-05
5 *24:4 0.000150023
6 *24:5 0.000105335

*RES
1 *24:5 *46:D 6.4
2 *24:4 *24:5 0.164932
3 *24:3 *24:4 0.0699711
4 *24:2 *24:3 0.082466
5 *24:1 *24:2 6.4
6 *53:Y *24:1 0.238072
*END

*D_NET *25 0.000991447

*CONN
*I *52:Y O *C 22.77 19.32 *L 0 *D NAND2XL
*I *51:B I *C 30.03 19.88 *L 0.00313 *D NAND3XL

*CAP
1 *52:Y 0.000135197
2 *25:1 0.000135197
3 *25:3 0.000360526
4 *25:4 0.000360526

*RES
1 *25:5 *51:B 6.4
2 *25:4 *25:5 6.4
3 *25:3 *25:4 1.90458
4 *25:2 *25:3 6.4
5 *25:1 *25:2 6.4
6 *52:Y *25:1 0.714217
*END

*D_NET *26 0.00204756

*CONN
*I *51:Y O *C 30.03 21 *L 0 *D NAND3XL
*I *49:A I *C 31.35 15.96 *L 0.00317 *D NOR2XL
*I *50:B0 I *C 33.99 14.84 *L 0.00302 *D OAI21XL

*CAP
1 *26:1 4.46876e-05
2 *26:2 0.00020269
3 *26:3 0.000604878
4 *26:4 0.000580938
5 *26:5 0.000239398
6 *26:7 0.000150023
7 *26:8 4.46876e-05
8 *26:9 9.01315e-05
9 *50:B0 9.01315e-05

*RES
1 *26:9 *50:B0 0.476144
2 *26:8 *26:9 6.4
3 *26:7 *26:8 0.0699711
4 *26:5 *26:7 0.164932
5 *26:4 *49:A 6.4
6 *26:4 *26:5 0.209913
7 *26:3 *26:4 0.699711
8 *26:2 *26:3 0.247398
9 *26:1 *26:2 0.0699711
10 *51:Y *26:1 6.4
*END

*D_NET *27 0.000716514

*CONN
*I *50:Y O *C 33.99 14.28 *L 0 *D OAI21XL
*I *48:D I *C 35.97 20.44 *L 0.00392 *D TLATNX1

*CAP
1 *50:Y 9.01315e-05
2 *27:1 9.01315e-05
3 *27:2 0.000268125
4 *27:3 0.000268125

*RES
1 *27:3 *48:D 6.4
2 *27:2 *27:3 0.419827
3 *27:1 *27:2 6.4
4 *50:Y *27:1 0.476144
*END

*D_NET *28 0.00395981

*CONN
*I *49:Y O *C 32.01 15.4 *L 0 *D NOR2XL
*I *48:GN I *C 33.99 19.88 *L 0.00247 *D TLATNX1
*I *47:GN I *C 39.93 9.8 *L 0.00247 *D TLATNX1
*I *46:GN I *C 40.59 5.88 *L 0.00247 *D TLATNX1

*CAP
1 *28:1 0.000134063
2 *28:2 0.000357501
3 *28:3 0.000223438
4 *28:4 0.000405592
5 *28:5 0.000135197
6 *28:6 0.000405592
7 *48:GN 0.000135197
8 *28:8 0.000580938
9 *28:9 0.000580938
10 *28:10 0.000135197
11 *47:GN 0.000135197
12 *28:12 5.26675e-05
13 *28:13 0.00036548
14 *28:14 0.000312813

*RES
1 *28:14 *46:GN 6.4
2 *28:13 *28:14 0.489798
3 *28:12 *28:13 0.082466
4 *47:GN *28:12 6.4
5 *28:10 *47:GN 0.714217
6 *28:9 *28:10 6.4
7 *28:8 *28:9 0.909625
8 *28:6 *28:8 6.4
9 *28:5 *48:GN 0.714217
10 *28:4 *28:6 2.14265
11 *28:3 *28:5 6.4
12 *28:2 *28:4 6.4
13 *28:2 *28:3 0.349856
14 *28:1 *28:2 0.209913
15 *49:Y *28:1 6.4
*END

*D_NET *29 0.000536251

*CONN
*I *43:A0 I *C 44.55 15.96 *L 0.00336 *D OAI21XL
*I *45:Y O *C 44.55 19.32 *L 0 *D MXI2XL

*CAP
1 *29:1 0.000268125
2 *29:2 0.000268125

*RES
1 *29:2 *45:Y 6.4
2 *29:1 *29:2 0.419827
3 *43:A0 *29:1 6.4
*END

*D_NET *30 0.000481065

*CONN
*I *44:Y O *C 41.91 16.52 *L 0 *D NAND4XL
*I *43:B0 I *C 45.21 14.84 *L 0.00302 *D OAI21XL

*CAP
1 *30:1 0.000105335
2 *30:2 0.000105335
3 *30:3 0.000135197
4 *43:B0 0.000135197

*RES
1 *30:3 *43:B0 0.714217
2 *30:2 *30:3 6.4
3 *30:1 *30:2 0.164932
4 *44:Y *30:1 6.4
*END

*D_NET *31 0.000494755

*CONN
*I *42:Y O *C 22.77 9.24 *L 0 *D NAND2XL
*I *37:B0 I *C 24.75 10.36 *L 0.00258 *D OAI2BB1XL

*CAP
1 *31:1 0.000158002
2 *31:2 0.000247378
3 *31:3 8.93751e-05

*RES
1 *31:3 *37:B0 6.4
2 *31:2 *31:3 0.139942
3 *31:1 *31:2 0.247398
4 *42:Y *31:1 6.4
*END

*D_NET *32 0.000797528

*CONN
*I *38:Y O *C 18.15 11.48 *L 0 *D AOI2BB1XL
*I *37:A1N I *C 23.43 10.92 *L 0.00155 *D OAI2BB1XL

*CAP
1 *32:2 4.50658e-05
2 *32:3 8.33034e-05
3 *32:4 0.000353698
4 *32:5 0.00031546

*RES
1 *32:6 *37:A1N 6.4
2 *32:5 *32:6 6.4
3 *32:4 *32:5 1.66651
4 *32:3 *32:4 0.202001
5 *32:2 *32:3 0.238072
6 *32:1 *32:2 6.4
7 *38:Y *32:1 6.4
*END

*D_NET *33 0.00566811

*CONN
*I *41:Y O *C 22.11 4.76 *L 0 *D NAND2X1
*I *60:A I *C 31.35 9.8 *L 0.00346 *D INVX1
*I *57:A I *C 28.71 5.88 *L 0.00377 *D MXI2X1
*I *55:B0 I *C 34.65 5.32 *L 0.00258 *D OAI2BB1XL
*I *51:C I *C 30.69 20.44 *L 0.00316 *D NAND3XL

*CAP
1 *41:Y 0.000180263
2 *33:1 0.000180263
3 *33:2 0.000268125
4 *33:3 0.000320793
5 *33:4 9.7355e-05
6 *33:5 9.7355e-05
7 *33:6 5.26675e-05
8 *33:7 0.000135197
9 *33:8 0.00031546
10 *60:A 0.000180263
11 *33:10 0.000402188
12 *33:11 0.00018673
13 *33:12 0.000312813
14 *33:13 0.000499543
15 *33:14 0.000405592
16 *33:15 4.46876e-05
17 *33:16 0.000499543
18 *33:17 0.000405592
19 *33:19 0.000142043
20 *33:20 8.93751e-05
21 *33:21 0.000247378
22 *33:22 8.93751e-05
23 *33:23 0.000336753
24 *33:25 0.00017875

*RES
1 *33:25 *51:C 6.4
2 *33:23 *33:25 0.279884
3 *33:22 *55:B0 6.4
4 *33:21 *33:23 0.247398
5 *33:20 *33:22 0.139942
6 *33:19 *33:21 0.139942
7 *33:17 *33:20 6.4
8 *33:16 *33:19 0.082466
9 *33:15 *57:A 6.4
10 *33:14 *33:17 2.14265
11 *33:13 *33:16 0.699711
12 *33:12 *33:15 0.0699711
13 *33:12 *33:14 6.4
14 *33:11 *33:13 0.082466
15 *33:10 *33:12 0.419827
16 *33:10 *33:11 0.209913
17 *33:8 *33:10 6.4
18 *33:8 *60:A 0.952289
19 *33:7 *33:8 0.714217
20 *33:6 *33:7 6.4
21 *33:5 *33:6 0.082466
22 *33:4 *33:5 0.0699711
23 *33:3 *33:4 0.082466
24 *33:2 *33:3 0.419827
25 *33:1 *33:2 6.4
26 *41:Y *33:1 0.952289
*END

*D_NET *34 0.00169618

*CONN
*I *40:Y O *C 28.05 6.44 *L 0 *D NAND2XL
*I *55:A1N I *C 33.33 4.76 *L 0.00155 *D OAI2BB1XL
*I *54:A1 I *C 32.67 9.8 *L 0.00314 *D AOI21XL

*CAP
1 *40:Y 4.50658e-05
2 *34:1 4.50658e-05
3 *34:2 0.000368672
4 *34:3 0.000681485
5 *34:4 0.000312813
6 *34:6 7.64752e-05
7 *34:7 0.000121541
8 *54:A1 4.50658e-05

*RES
1 *34:7 *54:A1 0.238072
2 *34:6 *34:7 0.404001
3 *34:4 *34:6 6.4
4 *34:3 *55:A1N 6.4
5 *34:3 *34:4 0.489798
6 *34:2 *34:3 0.577262
7 *34:1 *34:2 6.4
8 *40:Y *34:1 0.238072
*END

*D_NET *35 0.00260852

*CONN
*I *37:Y O *C 26.07 11.48 *L 0 *D OAI2BB1XL
*I *44:A I *C 40.59 15.4 *L 0.00324 *D NAND4XL

*CAP
1 *35:2 0.000675987
2 *35:3 0.000675987
3 *35:4 0.000312813
4 *35:5 0.000312813
5 *35:6 0.00031546
6 *44:A 0.00031546

*RES
1 *35:6 *44:A 1.66651
2 *35:5 *35:6 6.4
3 *35:4 *35:5 0.489798
4 *35:3 *35:4 6.4
5 *35:2 *35:3 3.57108
6 *35:1 *35:2 6.4
7 *37:Y *35:1 6.4
*END

